$ MacNeal & Harder (1985), Sec. 3 - curved cantilever beam. REFINED MESH.
$
$ Same problem as curved_beam.bdf -- 90-deg arc in the XY plane, inner radius
$ 4.12, outer radius 4.32, width (radial) 0.20, shell thickness 0.10,
$ E = 1.0e7, nu = 0.25, cantilevered at theta=0, in-plane unit tip load Fy at
$ theta=90 -- on a 24 x 4 mesh instead of the published 6 x 1 one.
$
$ WHY THIS DECK EXISTS. On the standard 6x1 benchmark mesh no bilinear quad
$ reaches the curved-beam-theory target: MacNeal & Harder's own published
$ QUAD4 result is 0.833 of it, and both OpenJFEM and the reference solver sit
$ there. That is a property of the mesh, not of the element, and the only way
$ to show the difference is to refine. This deck is the convergence evidence;
$ curved_beam.bdf remains the benchmark.
$
$ MESH RULE (so this deck is reproducible without a generator):
$   node id  = 25*j + i + 1,  i in 0..24 (arc), j in 0..4 (radial)
$   theta_i  = i * 90 / 24  degrees
$   r_j      = 4.32 - j * 0.20 / 4      (j = 0 is the OUTER radius)
$   x = r cos(theta), y = r sin(theta), z = 0
$   element (i,j) = [nid(i,j), nid(i+1,j), nid(i+1,j+1), nid(i,j+1)]
$
$ Reference (in-plane Fy = 1 at tip): tip displacement Uy = 0.08734.
$ Read at the MID-WIDTH tip node (j = 2), the closest discrete analogue of
$ the beam-theory reference point.
$
SOL 101
CEND
TITLE = MacNeal-Harder curved cantilever beam (in-plane load, 24x4)
SUBCASE 1
  LABEL = In-plane unit tip load Fy at theta=90
  SPC = 1
  LOAD = 1
  DISPLACEMENT = ALL
BEGIN BULK
$ ---- solver parameters ----
$ Drilling-DOF stabilisation is not part of the benchmark definition and
$ solvers default it differently (MSC/Nastran 70.5 SOL 101: 0.0; MSC.Nastran
$ 2004+ and OpenJFEM: 100.0). Pinned so the accuracy and same-deck parity
$ comparisons are parameter-exact. See validation/README.md, "PARAM,K6ROT".
PARAM,K6ROT,0.
$ ---- material and property ----
MAT1, 1, 1.0+7, , 0.25
PSHELL, 1, 1, 0.10, 1
$ ---- grids ----
GRID,     1, ,    4.32000000,    0.00000000, 0.0
GRID,     2, ,    4.31075055,    0.28254152, 0.0
GRID,     3, ,    4.28304180,    0.56387315, 0.0
GRID,     4, ,    4.23699241,    0.84279019, 0.0
GRID,     5, ,    4.17279957,    1.11809827, 0.0
GRID,     6, ,    4.09073816,    1.38861849, 0.0
GRID,     7, ,    3.99115958,    1.65319243, 0.0
GRID,     8, ,    3.87449024,    1.91068714, 0.0
GRID,     9, ,    3.74122974,    2.16000000, 0.0
GRID,    10, ,    3.59194873,    2.40006341, 0.0
GRID,    11, ,    3.42728643,    2.62984937, 0.0
GRID,    12, ,    3.24794797,    2.84837392, 0.0
GRID,    13, ,    3.05470129,    3.05470129, 0.0
GRID,    14, ,    2.84837392,    3.24794797, 0.0
GRID,    15, ,    2.62984937,    3.42728643, 0.0
GRID,    16, ,    2.40006341,    3.59194873, 0.0
GRID,    17, ,    2.16000000,    3.74122974, 0.0
GRID,    18, ,    1.91068714,    3.87449024, 0.0
GRID,    19, ,    1.65319243,    3.99115958, 0.0
GRID,    20, ,    1.38861849,    4.09073816, 0.0
$ ... 105 like lines cut
$ ---- elements ----
CQUAD4,     1, 1,     1,     2,    27,    26
CQUAD4,     2, 1,     2,     3,    28,    27
CQUAD4,     3, 1,     3,     4,    29,    28
CQUAD4,     4, 1,     4,     5,    30,    29
CQUAD4,     5, 1,     5,     6,    31,    30
CQUAD4,     6, 1,     6,     7,    32,    31
CQUAD4,     7, 1,     7,     8,    33,    32
CQUAD4,     8, 1,     8,     9,    34,    33
CQUAD4,     9, 1,     9,    10,    35,    34
CQUAD4,    10, 1,    10,    11,    36,    35
CQUAD4,    11, 1,    11,    12,    37,    36
CQUAD4,    12, 1,    12,    13,    38,    37
CQUAD4,    13, 1,    13,    14,    39,    38
CQUAD4,    14, 1,    14,    15,    40,    39
CQUAD4,    15, 1,    15,    16,    41,    40
CQUAD4,    16, 1,    16,    17,    42,    41
CQUAD4,    17, 1,    17,    18,    43,    42
CQUAD4,    18, 1,    18,    19,    44,    43
CQUAD4,    19, 1,    19,    20,    45,    44
CQUAD4,    20, 1,    20,    21,    46,    45
$ ... 76 like lines cut
$ ---- clamp at theta = 0 ----
SPC1, 1, 123456,     1
SPC1, 1, 123456,    26
SPC1, 1, 123456,    51
SPC1, 1, 123456,    76
SPC1, 1, 123456,   101
$ ---- in-plane tip load Fy = 1, consistent edge distribution ----
FORCE, 1,    25, ,  0.1250000000, 0.0, 1.0, 0.0
FORCE, 1,    50, ,  0.2500000000, 0.0, 1.0, 0.0
FORCE, 1,    75, ,  0.2500000000, 0.0, 1.0, 0.0
FORCE, 1,   100, ,  0.2500000000, 0.0, 1.0, 0.0
FORCE, 1,   125, ,  0.1250000000, 0.0, 1.0, 0.0
ENDDATA
