$ MacNeal & Harder (1985), Sec. 8 - pinched cylinder. REFINED MESH.
$
$ Same problem as pinched_cylinder.bdf -- R = 300, L = 600, t = 3, E = 3.0e6,
$ nu = 0.3, rigid end diaphragms, two opposing radial point loads P = 1 at
$ midspan, octant model -- on a 24 x 24 mesh instead of the published 4 x 4 one.
$
$ WHY THIS DECK EXISTS. The pinched cylinder is the slowest-converging case in
$ the set: on the standard 4x4 octant mesh NO published 4-node shell element
$ exceeds 0.64 of the target and most sit near 0.39, with OpenJFEM at 0.52 and
$ the reference solver at 0.52. Refining is the only way to separate the
$ element from the mesh. This deck is the convergence evidence;
$ pinched_cylinder.bdf remains the benchmark.
$
$ MESH RULE (so this deck is reproducible without a generator):
$   node id = 25*j + i + 1,  i in 0..24 (z), j in 0..24 (phi)
$   z_i     = i * 300 / 24
$   phi_j   = j * 90 / 24  degrees
$   x = 300 cos(phi), y = 300 sin(phi), z = z_i
$   element (i,j) = [nid(i,j), nid(i+1,j), nid(i+1,j+1), nid(i,j+1)]
$
$ Applied load at node 1 = P/4 = 0.25 in -X: the load point lies on TWO of the
$ three symmetry planes (z = 0 and phi = 0), so the octant carries a quarter.
$ Reference radial displacement at node 1: |Ux| = 1.8248e-5.
$
SOL 101
CEND
TITLE = MacNeal-Harder pinched cylinder (octant, 24x24)
SUBCASE 1
  LABEL = Two opposing radial point loads, octant model
  SPC = 1
  LOAD = 1
  DISPLACEMENT = ALL
BEGIN BULK
$ ---- solver parameters ----
$ Drilling-DOF stabilisation is not part of the benchmark definition and
$ solvers default it differently (MSC/Nastran 70.5 SOL 101: 0.0; MSC.Nastran
$ 2004+ and OpenJFEM: 100.0). Pinned so the accuracy and same-deck parity
$ comparisons are parameter-exact. See validation/README.md, "PARAM,K6ROT".
PARAM,K6ROT,0.
MAT1, 1, 3.0+6, , 0.3
PSHELL, 1, 1, 3.0, 1
$ ---- grids ----
GRID,     1, ,  300.00000000,    0.00000000,    0.000000
GRID,     2, ,  300.00000000,    0.00000000,   12.500000
GRID,     3, ,  300.00000000,    0.00000000,   25.000000
GRID,     4, ,  300.00000000,    0.00000000,   37.500000
GRID,     5, ,  300.00000000,    0.00000000,   50.000000
GRID,     6, ,  300.00000000,    0.00000000,   62.500000
GRID,     7, ,  300.00000000,    0.00000000,   75.000000
GRID,     8, ,  300.00000000,    0.00000000,   87.500000
GRID,     9, ,  300.00000000,    0.00000000,  100.000000
GRID,    10, ,  300.00000000,    0.00000000,  112.500000
GRID,    11, ,  300.00000000,    0.00000000,  125.000000
GRID,    12, ,  300.00000000,    0.00000000,  137.500000
GRID,    13, ,  300.00000000,    0.00000000,  150.000000
GRID,    14, ,  300.00000000,    0.00000000,  162.500000
GRID,    15, ,  300.00000000,    0.00000000,  175.000000
GRID,    16, ,  300.00000000,    0.00000000,  187.500000
GRID,    17, ,  300.00000000,    0.00000000,  200.000000
GRID,    18, ,  300.00000000,    0.00000000,  212.500000
GRID,    19, ,  300.00000000,    0.00000000,  225.000000
GRID,    20, ,  300.00000000,    0.00000000,  237.500000
$ ... 605 like lines cut
$ ---- elements ----
CQUAD4,     1, 1,     1,     2,    27,    26
CQUAD4,     2, 1,     2,     3,    28,    27
CQUAD4,     3, 1,     3,     4,    29,    28
CQUAD4,     4, 1,     4,     5,    30,    29
CQUAD4,     5, 1,     5,     6,    31,    30
CQUAD4,     6, 1,     6,     7,    32,    31
CQUAD4,     7, 1,     7,     8,    33,    32
CQUAD4,     8, 1,     8,     9,    34,    33
CQUAD4,     9, 1,     9,    10,    35,    34
CQUAD4,    10, 1,    10,    11,    36,    35
CQUAD4,    11, 1,    11,    12,    37,    36
CQUAD4,    12, 1,    12,    13,    38,    37
CQUAD4,    13, 1,    13,    14,    39,    38
CQUAD4,    14, 1,    14,    15,    40,    39
CQUAD4,    15, 1,    15,    16,    41,    40
CQUAD4,    16, 1,    16,    17,    42,    41
CQUAD4,    17, 1,    17,    18,    43,    42
CQUAD4,    18, 1,    18,    19,    44,    43
CQUAD4,    19, 1,    19,    20,    45,    44
CQUAD4,    20, 1,    20,    21,    46,    45
$ ... 556 like lines cut
$ ---- BCs ----
$ midspan symmetry (z = 0): Uz = Rx = Ry = 0
SPC1, 1, 345,     1
SPC1, 1, 345,    26
SPC1, 1, 345,    51
SPC1, 1, 345,    76
SPC1, 1, 345,   101
SPC1, 1, 345,   126
SPC1, 1, 345,   151
SPC1, 1, 345,   176
SPC1, 1, 345,   201
SPC1, 1, 345,   226
SPC1, 1, 345,   251
SPC1, 1, 345,   276
SPC1, 1, 345,   301
SPC1, 1, 345,   326
SPC1, 1, 345,   351
SPC1, 1, 345,   376
SPC1, 1, 345,   401
SPC1, 1, 345,   426
SPC1, 1, 345,   451
SPC1, 1, 345,   476
$ ... 5 like lines cut
$ phi = 0 symmetry (loaded plane, y = 0): Uy = Rx = Rz = 0
SPC1, 1, 246,     1, THRU,    25
$ phi = 90 symmetry (unloaded plane, x = 0): Ux = Ry = Rz = 0
SPC1, 1, 156,   601, THRU,   625
$ rigid diaphragm at z = 300: Ux = Uy = Rz = 0
SPC1, 1, 126,    25
SPC1, 1, 126,    50
SPC1, 1, 126,    75
SPC1, 1, 126,   100
SPC1, 1, 126,   125
SPC1, 1, 126,   150
SPC1, 1, 126,   175
SPC1, 1, 126,   200
SPC1, 1, 126,   225
SPC1, 1, 126,   250
SPC1, 1, 126,   275
SPC1, 1, 126,   300
SPC1, 1, 126,   325
SPC1, 1, 126,   350
SPC1, 1, 126,   375
SPC1, 1, 126,   400
SPC1, 1, 126,   425
SPC1, 1, 126,   450
SPC1, 1, 126,   475
SPC1, 1, 126,   500
$ ... 5 like lines cut
$ ---- load ----
FORCE, 1, 1, , 0.25, -1.0, 0.0, 0.0
ENDDATA
