SOL 105
CEND
TITLE = OpenJFEM bundled precompile SOL105 meshed plate (sparse-path coverage)
SUBCASE 1
  SPC = 1
  LOAD = 1
SUBCASE 2
  SPC = 1
  METHOD = 1
  STATSUB = 1
BEGIN BULK
PARAM,AUTOSPC,YES
GRID,1,,0.0,0.0,0.
GRID,2,,0.1,0.0,0.
GRID,3,,0.2,0.0,0.
GRID,4,,0.3,0.0,0.
GRID,5,,0.4,0.0,0.
GRID,6,,0.5,0.0,0.
GRID,7,,0.6,0.0,0.
GRID,8,,0.7,0.0,0.
GRID,9,,0.8,0.0,0.
GRID,10,,0.9,0.0,0.
GRID,11,,1.0,0.0,0.
GRID,12,,1.1,0.0,0.
GRID,13,,1.2,0.0,0.
GRID,14,,0.0,0.1,0.
GRID,15,,0.1,0.1,0.
GRID,16,,0.2,0.1,0.
GRID,17,,0.3,0.1,0.
GRID,18,,0.4,0.1,0.
GRID,19,,0.5,0.1,0.
GRID,20,,0.6,0.1,0.
$ ... 149 like lines cut
CQUAD4,1,1,1,2,15,14
CQUAD4,2,1,2,3,16,15
CQUAD4,3,1,3,4,17,16
CQUAD4,4,1,4,5,18,17
CQUAD4,5,1,5,6,19,18
CQUAD4,6,1,6,7,20,19
CQUAD4,7,1,7,8,21,20
CQUAD4,8,1,8,9,22,21
CQUAD4,9,1,9,10,23,22
CQUAD4,10,1,10,11,24,23
CQUAD4,11,1,11,12,25,24
CQUAD4,12,1,12,13,26,25
CQUAD4,13,1,14,15,28,27
CQUAD4,14,1,15,16,29,28
CQUAD4,15,1,16,17,30,29
CQUAD4,16,1,17,18,31,30
CQUAD4,17,1,18,19,32,31
CQUAD4,18,1,19,20,33,32
CQUAD4,19,1,20,21,34,33
CQUAD4,20,1,21,22,35,34
$ ... 112 like lines cut
CTRIA3,133,1,144,145,158
CTRIA3,134,1,144,158,157
CTRIA3,135,1,145,146,159
CTRIA3,136,1,145,159,158
CTRIA3,137,1,146,147,160
CTRIA3,138,1,146,160,159
CTRIA3,139,1,147,148,161
CTRIA3,140,1,147,161,160
CTRIA3,141,1,148,149,162
CTRIA3,142,1,148,162,161
CTRIA3,143,1,149,150,163
CTRIA3,144,1,149,163,162
CTRIA3,145,1,150,151,164
CTRIA3,146,1,150,164,163
CTRIA3,147,1,151,152,165
CTRIA3,148,1,151,165,164
CTRIA3,149,1,152,153,166
CTRIA3,150,1,152,166,165
CTRIA3,151,1,153,154,167
CTRIA3,152,1,153,167,166
$ ... 4 like lines cut
PSHELL,1,1,0.02,1,,1
MAT1,1,7.0E10,2.6923E10,0.3,2700.
SPC1,1,123456,1
SPC1,1,123456,14
SPC1,1,123456,27
SPC1,1,123456,40
SPC1,1,123456,53
SPC1,1,123456,66
SPC1,1,123456,79
SPC1,1,123456,92
SPC1,1,123456,105
SPC1,1,123456,118
SPC1,1,123456,131
SPC1,1,123456,144
SPC1,1,123456,157
FORCE,1,13,0,-1000.,1.,0.,0.
FORCE,1,26,0,-1000.,1.,0.,0.
FORCE,1,39,0,-1000.,1.,0.,0.
FORCE,1,52,0,-1000.,1.,0.,0.
FORCE,1,65,0,-1000.,1.,0.,0.
FORCE,1,78,0,-1000.,1.,0.,0.
FORCE,1,91,0,-1000.,1.,0.,0.
FORCE,1,104,0,-1000.,1.,0.,0.
FORCE,1,117,0,-1000.,1.,0.,0.
FORCE,1,130,0,-1000.,1.,0.,0.
FORCE,1,143,0,-1000.,1.,0.,0.
FORCE,1,156,0,-1000.,1.,0.,0.
FORCE,1,169,0,-1000.,1.,0.,0.
EIGRL,1,0.,1.0E9,4
ENDDATA
